@<TRIPOS>MOLECULE
AQ4_native.pdb
52 54 1 0 0
SMALL
AMBER ff14SB


@<TRIPOS>ATOM
      1 C1         29.5520   -1.9890   53.4960 C.1       1 AQ4   -0.1305
      2 C2         28.8410   -1.0220   53.4320 C.1       1 AQ4   -0.1270
      3 C3         27.9890    0.0940   53.3660 C.ar      1 AQ4    0.0370
      4 C4         26.6060   -0.1190   53.3230 C.ar      1 AQ4   -0.0870
      5 C5         25.7250    0.9720   53.2580 C.ar      1 AQ4    0.1266
      6 N1         24.2890    0.7120   53.2150 N.pl3     1 AQ4   -0.7223
      7 C6         23.4100   -0.2170   53.9080 C.ar      1 AQ4    0.6952
      8 C7         22.0370   -0.3090   53.5720 C.ar      1 AQ4   -0.2876
      9 C8         21.5010    0.4760   52.5460 C.ar      1 AQ4   -0.1110
     10 C9         20.1430    0.3760   52.2180 C.ar      1 AQ4    0.0651
     11 O1         19.5890    1.2200   51.1200 O.3       1 AQ4   -0.3539
     12 C10        20.5500    1.3620   50.0410 C.3       1 AQ4    0.0944
     13 C11        20.2350    2.6450   49.2620 C.3       1 AQ4    0.1224
     14 O2         18.9900    2.4850   48.5430 O.3       1 AQ4   -0.4166
     15 C12        17.7120    2.6180   49.3990 C.3       1 AQ4    0.1077
     16 C13        19.3010   -0.5350   52.9230 C.ar      1 AQ4    0.1211
     17 O3         17.8280   -0.6790   52.5970 O.3       1 AQ4   -0.3429
     18 C14        17.2270    0.6010   52.2200 C.3       1 AQ4    0.1244
     19 C15        15.7030    0.4940   52.0660 C.3       1 AQ4    0.1214
     20 O4         15.1080    0.1670   53.3350 O.3       1 AQ4   -0.4226
     21 C16        13.8430   -0.6950   53.2210 C.3       1 AQ4    0.1167
     22 C17        19.8450   -1.3180   53.9420 C.ar      1 AQ4   -0.1833
     23 C18        21.1990   -1.2220   54.2640 C.ar      1 AQ4    0.4406
     24 N2         21.7470   -2.0390   55.3190 N.ar      1 AQ4   -0.7100
     25 C19        23.1170   -1.9340   55.6420 C.ar      1 AQ4    0.6719
     26 N3         23.9430   -1.0230   54.9400 N.ar      1 AQ4   -0.7620
     27 C20        26.2340    2.2920   53.2360 C.ar      1 AQ4   -0.1610
     28 C21        27.6250    2.5090   53.2790 C.ar      1 AQ4   -0.1160
     29 C22        28.5080    1.4100   53.3440 C.ar      1 AQ4   -0.1170
     30 H1         30.1767   -2.8386   53.5522 H         1 AQ4    0.1675
     31 H4         26.2156   -1.1258   53.3399 H         1 AQ4    0.1610
     32 HN1        23.7993    1.3067   52.5618 H         1 AQ4    0.4288
     33 H8         22.1363    1.1615   52.0049 H         1 AQ4    0.1420
     34 H102       21.5571    1.4223   50.4535 H         1 AQ4    0.0542
     35 H103       20.4795    0.5030   49.3737 H         1 AQ4    0.0542
     36 H112       20.1467    3.4791   49.9581 H         1 AQ4    0.0622
     37 H113       21.0393    2.8465   48.5544 H         1 AQ4    0.0622
     38 H142       17.6551    0.9255   51.2716 H         1 AQ4    0.0632
     39 H143       17.4564    1.3415   52.9862 H         1 AQ4    0.0632
     40 H152       15.3068    1.4469   51.7152 H         1 AQ4    0.0442
     41 H153       15.4655   -0.2858   51.3424 H         1 AQ4    0.0442
     42 H17        19.2125   -2.0040   54.4859 H         1 AQ4    0.1750
     43 H19        23.5355   -2.5489   56.4251 H         1 AQ4    0.0561
     44 H20        25.5569    3.1319   53.1863 H         1 AQ4    0.1310
     45 H21        28.0156    3.5157   53.2622 H         1 AQ4    0.1370
     46 H22        29.5752    1.5728   53.3768 H         1 AQ4    0.1420
     47 H121       17.0948    3.4269   49.0081 H         1 AQ4    0.0377
     48 H122       17.1518    1.6837   49.3626 H         1 AQ4    0.0377
     49 H123       17.9869    2.8368   50.4308 H         1 AQ4    0.0377
     50 H161       13.4517   -0.9005   54.2174 H         1 AQ4    0.0347
     51 H162       14.0875   -1.6349   52.7260 H         1 AQ4    0.0347
     52 H163       13.0916   -0.1622   52.6383 H         1 AQ4    0.0347
@<TRIPOS>BOND
     1    1    2 3
     2   12   11 1
     3   12   13 1
     4   13   14 1
     5   15   14 1
     6   16   10 ar
     7   16   22 ar
     8   16   17 1
     9   18   19 1
    10   18   17 1
    11   19   20 1
    12   21   20 1
    13   22   23 ar
    14   23    8 ar
    15   23   24 ar
    16   25   24 ar
    17   25   26 ar
    18    2    3 1
    19   27    5 ar
    20   27   28 ar
    21   28   29 ar
    22   29    3 ar
    23    3    4 ar
    24    4    5 ar
    25    5    6 1
    26    7    8 ar
    27    7    6 1
    28    7   26 ar
    29    8    9 ar
    30    9   10 ar
    31   10   11 1
    32   30    1 1
    33   31    4 1
    34   32    6 1
    35   33    9 1
    36   34   12 1
    37   35   12 1
    38   36   13 1
    39   37   13 1
    40   38   18 1
    41   39   18 1
    42   40   19 1
    43   41   19 1
    44   42   22 1
    45   43   25 1
    46   44   27 1
    47   45   28 1
    48   46   29 1
    49   47   15 1
    50   48   15 1
    51   49   15 1
    52   50   21 1
    53   51   21 1
    54   52   21 1
@<TRIPOS>SUBSTRUCTURE
     1 AQ4     1 RESIDUE           4 A     AQ4     0 ROOT
