@<TRIPOS>MOLECULE
OHT_native.pdb
59 61 1 0 0
SMALL
AMBER ff14SB


@<TRIPOS>ATOM
      1 C10        30.5720    1.4600   29.5500 C.3       1 OHT   -0.0901
      2 C9         30.6990   -0.0280   29.3720 C.3       1 OHT   -0.0522
      3 C8         31.3600   -0.3940   28.0590 C.2       1 OHT   -0.0124
      4 C11        32.7850    0.0460   27.9620 C.ar      1 OHT   -0.0668
      5 C16        33.2390    0.7750   26.8420 C.ar      1 OHT   -0.1210
      6 C15        34.5570    1.2270   26.7760 C.ar      1 OHT   -0.1295
      7 C14        35.4490    0.9720   27.7990 C.ar      1 OHT   -0.1270
      8 C13        35.0240    0.2620   28.8970 C.ar      1 OHT   -0.1295
      9 C12        33.7040   -0.1950   28.9760 C.ar      1 OHT   -0.1210
     10 C7         30.7040   -1.0620   27.0650 C.2       1 OHT   -0.0284
     11 C1         29.2060   -1.2370   27.0160 C.ar      1 OHT   -0.1008
     12 C2         28.6040   -2.4940   26.6950 C.ar      1 OHT   -0.0815
     13 C3         27.2100   -2.6160   26.6050 C.ar      1 OHT   -0.1870
     14 C4         26.4050   -1.4840   26.8350 C.ar      1 OHT    0.1351
     15 O4         25.0540   -1.6230   26.7220 O.3       1 OHT   -0.4901
     16 C5         26.9890   -0.2380   27.1560 C.ar      1 OHT   -0.1870
     17 C6         28.3720   -0.1380   27.2390 C.ar      1 OHT   -0.0815
     18 C17        31.4070   -1.6960   25.9450 C.ar      1 OHT   -0.0278
     19 C18        32.5240   -2.5020   26.1460 C.ar      1 OHT   -0.0880
     20 C19        33.1770   -3.1210   25.1170 C.ar      1 OHT   -0.1520
     21 C20        32.7200   -2.9510   23.8200 C.ar      1 OHT    0.0691
     22 O20        33.2910   -3.5610   22.7400 O.3       1 OHT   -0.3839
     23 C23        32.8950   -3.1900   21.4230 C.3       1 OHT    0.1084
     24 C24        34.0540   -3.5150   20.5200 C.3       1 OHT    0.0978
     25 N24        34.1030   -4.8940   20.1180 N.4       1 OHT   -0.6774
     26 C25        33.3840   -5.1180   18.8630 C.3       1 OHT    0.0826
     27 C26        35.5000   -5.2990   19.9220 C.3       1 OHT    0.0826
     28 C21        31.5970   -2.1410   23.5790 C.ar      1 OHT   -0.1520
     29 C22        30.9620   -1.5330   24.6260 C.ar      1 OHT   -0.0880
     30 H92        31.2976   -0.4292   30.1898 H         1 OHT    0.0602
     31 H93        29.7058   -0.4757   29.4063 H         1 OHT    0.0602
     32 H16        32.5599    0.9848   26.0288 H         1 OHT    0.1370
     33 H15        34.8850    1.7850   25.9115 H         1 OHT    0.1360
     34 H14        36.4675    1.3258   27.7373 H         1 OHT    0.1360
     35 H13        35.7128    0.0559   29.7029 H         1 OHT    0.1360
     36 H12        33.3911   -0.7498   29.8482 H         1 OHT    0.1370
     37 H2         29.2289   -3.3573   26.5203 H         1 OHT    0.1385
     38 H3         26.7592   -3.5669   26.3622 H         1 OHT    0.1485
     39 H5         26.3672    0.6267   27.3348 H         1 OHT    0.1485
     40 H6         28.8153    0.8162   27.4828 H         1 OHT    0.1385
     41 H18        32.8884   -2.6436   27.1528 H         1 OHT    0.1570
     42 H19        34.0418   -3.7374   25.3132 H         1 OHT    0.1390
     43 H232       32.0132   -3.7556   21.1218 H         1 OHT    0.0812
     44 H233       32.6824   -2.1216   21.3855 H         1 OHT    0.0812
     45 H242       33.9764   -2.8981   19.6248 H         1 OHT    0.1092
     46 H243       34.9812   -3.2675   21.0369 H         1 OHT    0.1092
     47 HN24       33.6911   -5.4650   20.8422 H         1 OHT    0.4748
     48 H21        31.2371   -1.9994   22.5706 H         1 OHT    0.1390
     49 H22        30.0987   -0.9136   24.4325 H         1 OHT    0.1570
     50 H101       30.0924    1.6725   30.5055 H         1 OHT    0.0404
     51 H102       29.9686    1.8722   28.7412 H         1 OHT    0.0404
     52 H103       31.5628    1.9140   29.5319 H         1 OHT    0.0404
     53 H4         24.8349   -1.9070   25.8315 H         1 OHT    0.4240
     54 H261       36.0575   -5.1412   20.8452 H         1 OHT    0.1050
     55 H262       35.5375   -6.3541   19.6510 H         1 OHT    0.1050
     56 H263       35.9426   -4.7029   19.1239 H         1 OHT    0.1050
     57 H251       32.3414   -4.8239   18.9835 H         1 OHT    0.1050
     58 H252       33.8400   -4.5226   18.0720 H         1 OHT    0.1050
     59 H253       33.4354   -6.1741   18.5983 H         1 OHT    0.1050
@<TRIPOS>BOND
     1   11   10 1
     2   11   17 ar
     3   11   12 ar
     4    1    2 1
     5    4    3 1
     6    4    5 ar
     7    4    9 ar
     8    9    8 ar
     9    8    7 ar
    10    7    6 ar
    11    6    5 ar
    12   18   10 1
    13   18   19 ar
    14   18   29 ar
    15   19   20 ar
    16   20   21 ar
    17   12   13 ar
    18   21   22 1
    19   21   28 ar
    20   28   29 ar
    21   23   22 1
    22   23   24 1
    23   24   25 1
    24   26   25 1
    25   27   25 1
    26   13   14 ar
    27   14   16 ar
    28   14   15 1
    29   16   17 ar
    30   10    3 2
    31    3    2 1
    32   30    2 1
    33   31    2 1
    34   32    5 1
    35   33    6 1
    36   34    7 1
    37   35    8 1
    38   36    9 1
    39   37   12 1
    40   38   13 1
    41   39   16 1
    42   40   17 1
    43   41   19 1
    44   42   20 1
    45   43   23 1
    46   44   23 1
    47   45   24 1
    48   46   24 1
    49   47   25 1
    50   48   28 1
    51   49   29 1
    52   50    1 1
    53   51    1 1
    54   52    1 1
    55   53   15 1
    56   54   27 1
    57   55   27 1
    58   56   27 1
    59   57   26 1
    60   58   26 1
    61   59   26 1
@<TRIPOS>SUBSTRUCTURE
     1 OHT     1 RESIDUE           4 A     OHT     0 ROOT
